*4109061012
OPAMP

VIN 1 0 sin(0 0.5 50KHz)
R1  1 2 1K
R2  2 3 10K
X5  2 0 3 0 OPAMP

* 101:in+, 102:in-, 103:out, 104:gnd

.SUBCKT OPAMP 101 102 103 104
RIN 101  102100K
RO 105 103 50
E1 105 104 101 102 1E6
.ENDS OPAMP

*TF V(3) VIN
*.OPTIONS NOPAGE
.tran 0.5us 40us
.plot tran v(1) v(3) (-5V, 5V)

.END
