*4109061012
SPEAKER


VIN 1 0 sin(0 0.05 50KHz)
VCC 8 0 12V

C1  1 2 1U
R1  2 8 100K
R2  2 0 100K
X5  2 3 5 0 OPAMP
R5  3 6 47K
R6  3 4 470
C3  4 0 47U
R4  5 6 100
Q1  8 5 6 QNPN
Q2  0 5 6 QPNP
C4  6 7 330U
RL  7 0 8


* 101:in+, 102:in-, 103:out, 104:gnd

.SUBCKT OPAMP 101 102 103 104
RIN 101  102 100K
RO 105 103 50
E1 105 104 101 102 1E6
.ENDS OPAMP

.MODEL  QNPN NPN
.MODEL  QPNP PNP


.tran 0.5us 40us
.plot tran v(1) v(7)

.END
